data/three-wire-modified/network_2/Feeder_5/LineCode.txt
! Subset of available target linecodes, which are closest to the original ones in terms of positive sequence impedance
! ---------------------------------------------------------------------------------------------------------------------------------------------------------------------------------------------------
! original name: BS 5467 1997 table 10 25 (50 Hz)
New LineCode.LC2 nphases=3 Units=km Normamps=107
~ Rmatrix=(1.0594667298627067 0.3242646289666607 0.3314749224926541 | 0.3242646289666607 1.0446376222687768 0.3242638498991469 | 0.3314749224926541 0.3242638498991469 1.0594661151236098)
~ Xmatrix=(0.34010734126323733 0.27976519456661353 0.24337450968248492 | 0.27976519456661353 0.3638194610546059 0.2797643661740138 | 0.24337450968248492 0.2797643661740138 0.3401206781030399)
~ Cmatrix=(0.0 0.0 0.0 | 0.0 0.0 0.0 | 0.0 0.0 0.0)

! original name: BS 5467 1997 table 10 70 (50 Hz)
New LineCode.LC4 nphases=3 Units=km Normamps=167
~ Rmatrix=(0.44953913376315724 0.17616199136098196 0.1785122816803393 | 0.1761619913609819 0.4429873630446448 0.1761926354329793 | 0.1785122816803393 0.1761926354329793 0.44960242548376383)
~ Xmatrix=(0.1644338736389795 0.11425582422645958 0.07301236488580165 | 0.11425582422645952 0.19845465242237786 0.11427426646422706 | 0.07301236488580165 0.11427426646422706 0.16448084404397678)
~ Cmatrix=(0.0 0.0 0.0 | 0.0 0.0 0.0 | 0.0 0.0 0.0)

! original name: BS 6480 1988 table 17 Cu 120 (50 Hz)
New LineCode.LC5 nphases=3 Units=km
~ Rmatrix=(0.28624372507521406 0.12998859917512695 0.12119153205667876 | 0.12998859917512695 0.2941406352699749 0.1299884911853283 | 0.12119153205667876 0.1299884911853283 0.28624433902157953)
~ Xmatrix=(0.12239538863209254 0.07930352037524346 0.026869314711363557 | 0.07930352037524346 0.16829225790114147 0.07930355564647984 | 0.026869314711363557 0.07930355564647984 0.12239424079936612)
~ Cmatrix=(0.0 0.0 0.0 | 0.0 0.0 0.0 | 0.0 0.0 0.0)

! original name: BS 6480 1988 table 17 Cu 16 (50 Hz)
New LineCode.LC6 nphases=3 Units=km Normamps=58
~ Rmatrix=(1.7933236711472256 0.6363723759193842 0.6399235094508074 | 0.6363723759193842 1.784886510251047 0.6363722249590626 | 0.6399235094508074 0.6363722249590626 1.7933243477547518)
~ Xmatrix=(0.31879625459756056 0.251481213905138 0.20435482237859037 | 0.251481213905138 0.3529353602963323 0.25148177638394376 | 0.20435482237859037 0.25148177638394376 0.3188003901594534)
~ Cmatrix=(0.0 0.0 0.0 | 0.0 0.0 0.0 | 0.0 0.0 0.0)

! original name: Waveform 4-core 300 IEC 60287 (50 Hz)
New LineCode.LC8 nphases=3 Units=km Normamps=419
~ Rmatrix=(0.16985456261876042 0.06410019258565515 0.06319856261876039 | 0.06410019258565515 0.17321094309067292 0.06410019258565515 | 0.06319856261876039 0.06410019258565515 0.16985456261876042)
~ Xmatrix=(0.09071426854225961 0.04262044882571683 0.008149268542259613 | 0.04262044882571683 0.11502590419087233 0.04262044882571683 | 0.008149268542259613 0.04262044882571683 0.09071426854225961)
~ Cmatrix=(0.0 0.0 0.0 | 0.0 0.0 0.0 | 0.0 0.0 0.0)
! ---------------------------------------------------------------------------------------------------------------------------------------------------------------------------------------------------